
  Mrv0541 12081516143D          

 13 13  0  0  0  0            999 V2000
   -0.0122   -0.0211    0.0035 C   0  0  0  0  0  0  0  0  0  0  0  0
   -0.7133    1.2009    0.0038 C   0  0  0  0  0  0  0  0  0  0  0  0
   -0.0091    2.4215    0.0011 C   0  0  0  0  0  0  0  0  0  0  0  0
    1.3984    2.4222    0.0001 C   0  0  0  0  0  0  0  0  0  0  0  0
    2.1016    1.2028    0.0011 C   0  0  0  0  0  0  0  0  0  0  0  0
    1.3966   -0.0173    0.0038 C   0  0  0  0  0  0  0  0  0  0  0  0
   -0.6901   -1.1952   -0.0142 O   0  0  0  0  0  0  0  0  0  0  0  0
   -1.7353    1.2060   -0.0004 H   0  0  0  0  0  0  0  0  0  0  0  0
   -0.5201    3.3079   -0.0005 H   0  0  0  0  0  0  0  0  0  0  0  0
    1.9101    3.3083   -0.0002 H   0  0  0  0  0  0  0  0  0  0  0  0
    3.1248    1.2036   -0.0005 H   0  0  0  0  0  0  0  0  0  0  0  0
    1.9121   -0.8998   -0.0004 H   0  0  0  0  0  0  0  0  0  0  0  0
   -0.8269   -1.4323    0.9267 H   0  0  0  0  0  0  0  0  0  0  0  0
  1  2  1  0  0  0  0
  1  6  2  0  0  0  0
  2  3  2  0  0  0  0
  3  4  1  0  0  0  0
  4  5  2  0  0  0  0
  5  6  1  0  0  0  0
  7  1  1  0  0  0  0
  2  8  1  0  0  0  0
  3  9  1  0  0  0  0
  4 10  1  0  0  0  0
  5 11  1  0  0  0  0
  6 12  1  0  0  0  0
  7 13  1  0  0  0  0
M  END
