
  Mrv0541 12081516123D          

 12 11  0  0  0  0            999 V2000
   -0.2233   -0.4675   -0.2906 C   0  0  1  0  0  0  0  0  0  0  0  0
   -0.3048    0.2224   -1.1347 H   0  0  0  0  0  0  0  0  0  0  0  0
   -1.0122   -1.7543   -0.6275 C   0  0  0  0  0  0  0  0  0  0  0  0
   -2.0662   -1.5211   -0.7905 H   0  0  0  0  0  0  0  0  0  0  0  0
   -0.6155   -2.2099   -1.5363 H   0  0  0  0  0  0  0  0  0  0  0  0
   -0.9317   -2.4770    0.1871 H   0  0  0  0  0  0  0  0  0  0  0  0
   -0.7528    0.2366    0.9808 C   0  0  0  0  0  0  0  0  0  0  0  0
   -0.1789    1.1450    1.1706 H   0  0  0  0  0  0  0  0  0  0  0  0
   -1.8014    0.5105    0.8521 H   0  0  0  0  0  0  0  0  0  0  0  0
   -0.6616   -0.4203    1.8487 H   0  0  0  0  0  0  0  0  0  0  0  0
    1.1551   -0.7940   -0.1171 O   0  0  0  0  0  0  0  0  0  0  0  0
    1.6013    0.0641    0.0432 H   0  0  0  0  0  0  0  0  0  0  0  0
  2  1  1  0  0  0  0
  3  5  1  0  0  0  0
  4  3  1  0  0  0  0
  3  6  1  0  0  0  0
  3  1  1  0  0  0  0
  7  8  1  0  0  0  0
  7  9  1  0  0  0  0
  7 10  1  0  0  0  0
  7  1  1  0  0  0  0
  1 11  1  0  0  0  0
 11 12  1  0  0  0  0
M  END
