
  Mrv0541 12081516133D          

 13 13  0  0  0  0            999 V2000
    1.5591   -0.0165    0.0388 C   0  0  1  0  0  0  0  0  0  0  0  0
    0.1158    0.2205    0.5264 C   0  0  2  0  0  0  0  0  0  0  0  0
   -0.5445    0.9005   -0.6759 C   0  0  2  0  0  0  0  0  0  0  0  0
    1.7449    0.6881   -1.1990 O   0  0  0  0  0  0  0  0  0  0  0  0
    0.6465    1.5922   -1.3486 C   0  0  2  0  0  0  0  0  0  0  0  0
    2.2826    0.3390    0.7748 H   0  0  0  0  0  0  0  0  0  0  0  0
    1.7319   -1.0812   -0.1352 H   0  0  0  0  0  0  0  0  0  0  0  0
    0.1084    0.8839    1.3974 H   0  0  0  0  0  0  0  0  0  0  0  0
   -0.3905   -0.7148    0.7845 H   0  0  0  0  0  0  0  0  0  0  0  0
   -1.3202    1.6104   -0.3773 H   0  0  0  0  0  0  0  0  0  0  0  0
   -0.9697    0.1490   -1.3496 H   0  0  0  0  0  0  0  0  0  0  0  0
    0.8769    2.5438   -0.8601 H   0  0  0  0  0  0  0  0  0  0  0  0
    0.4477    1.7762   -2.4057 H   0  0  0  0  0  0  0  0  0  0  0  0
  3  2  1  0  0  0  0
  2  1  1  0  0  0  0
  3  5  1  0  0  0  0
  5  4  1  0  0  0  0
  4  1  1  0  0  0  0
  1  6  1  0  0  0  0
  1  7  1  0  0  0  0
  2  8  1  0  0  0  0
  2  9  1  0  0  0  0
  3 10  1  0  0  0  0
  3 11  1  0  0  0  0
  5 12  1  0  0  0  0
  5 13  1  0  0  0  0
M  END
