13

C -1.110816 -0.465906 0.164316
O 0.000164 -1.184634 -0.313243
C 0.767333 1.003211 -0.052120
C -0.767871 1.002714 -0.052859
C 1.111154 -0.465492 0.163742
H 1.254818 -0.673335 1.247262
H 1.195275 1.643687 0.733432
H -1.197106 1.643949 0.731362
H -1.253369 -0.673103 1.248122
H 2.003457 -0.810296 -0.378591
H 1.158564 1.356352 -1.017730
H -1.158327 1.354196 -1.019397
H -2.003424 -0.811537 -0.376988
