13

C 0.000016 -1.203281 -0.162287
C 1.213886 -0.317991 0.121798
C -0.666359 1.059736 -0.056069
C -1.213877 -0.318022 0.121799
C 0.666330 1.059753 -0.056070
H 1.293250 1.953000 -0.120296
H -1.293302 1.952966 -0.120291
H -1.583448 -0.446425 1.158994
H -2.070261 -0.539960 -0.536371
H 1.583457 -0.446384 1.159006
H 2.070281 -0.539907 -0.536370
H 0.000018 -1.472785 -1.231808
H 0.000028 -2.141676 0.412108
