26

C -1.416132 1.227267 0.000034
C -0.678639 2.442445 0.000092
H -1.235579 3.385000 0.000117
C -2.811079 1.202251 0.000023
H -3.356289 2.151656 0.000048
C 0.678469 2.442396 -0.000090
H 1.235301 3.385012 -0.000127
C -0.705938 -0.000054 0.000000
C 0.705954 -0.000046 -0.000003
C 1.416111 1.227270 -0.000036
C 1.416170 -1.227354 0.000015
C 0.678621 -2.442330 0.000013
C -0.678530 -2.442341 -0.000011
C -1.416114 -1.227384 -0.000017
C -2.811087 -1.202273 -0.000031
C -3.497910 -0.000042 -0.000016
H -4.591420 -0.000036 -0.000024
H -3.356240 -2.151733 -0.000049
H 1.235618 -3.385109 0.000023
H -1.235511 -3.385130 -0.000017
H 3.356224 2.151763 -0.000038
C 2.811056 1.202336 -0.000020
C 2.811142 -1.202189 0.000029
H 3.356327 -2.151632 0.000047
C 3.497927 0.000064 0.000017
H 4.591437 0.000099 0.000026
