18

C 0.000000 0.922119 0.000000
C -0.836835 2.041159 0.000000
C -2.162530 1.600946 0.000000
C -2.196811 0.204503 0.000000
C -0.882384 -0.269616 0.000000
C 1.381600 0.947148 0.000000
C 2.273257 -0.117188 0.000000
C 1.996989 -1.477883 0.000000
C 0.776266 -2.139910 0.000000
C -0.502220 -1.598474 0.000000
H -0.495851 3.076901 0.000000
H -3.039667 2.250636 0.000000
H -3.088204 -0.423441 0.000000
H 1.827724 1.950409 0.000000
H 3.334899 0.150895 0.000000
H 2.878209 -2.130272 0.000000
H 0.830171 -3.233533 0.000000
H -1.331270 -2.318421 0.000000
