14

C 0.695683 1.803431 0.000000
C 0.695683 0.294191 0.000000
C -0.695683 -0.294191 0.000000
C -0.695683 -1.803431 0.000000
H 1.714450 2.220341 0.000000
H -1.714450 -2.220341 0.000000
H 0.173746 2.198557 0.887619
H 0.173746 2.198557 -0.887619
H -0.173746 -2.198557 0.887619
H -0.173746 -2.198557 -0.887619
H 1.246245 -0.085210 -0.881320
H 1.246245 -0.085210 0.881320
H -1.246245 0.085210 -0.881320
H -1.246245 0.085210 0.881320
