
  Mrv0541 12081516413D          

  3  2  0  0  0  0            999 V2000
    0.0000    0.0000    0.0000 C   0  0  0  0  0  0  0  0  0  0  0  0
    1.1520    0.0000    0.0000 O   0  0  0  0  0  0  0  0  0  0  0  0
   -1.1520    0.0000    0.0000 O   0  0  0  0  0  0  0  0  0  0  0  0
  3  1  2  0  0  0  0
  1  2  2  0  0  0  0
M  END
