
  Mrv0541 12081516113D          

  6  5  0  0  0  0            999 V2000
    1.4100    0.0013    0.0022 C   0  0  0  0  0  0  0  0  0  0  0  0
   -0.0111   -0.0097   -0.0168 O   0  0  0  0  0  0  0  0  0  0  0  0
   -0.2781    0.4621    0.8004 H   0  0  0  0  0  0  0  0  0  0  0  0
    1.7817   -0.5105   -0.8842 H   0  0  0  0  0  0  0  0  0  0  0  0
    1.7704    1.0300    0.0043 H   0  0  0  0  0  0  0  0  0  0  0  0
    1.7704   -0.5112    0.8942 H   0  0  0  0  0  0  0  0  0  0  0  0
  2  3  1  0  0  0  0
  1  2  1  0  0  0  0
  5  1  1  0  0  0  0
  1  4  1  0  0  0  0
  1  6  1  0  0  0  0
M  END
