
  Mrv0541 12081516123D          

  9  8  0  0  0  0            999 V2000
   -0.0060    0.0124    0.0000 C   0  0  2  0  0  0  0  0  0  0  0  0
   -0.4710    1.3573   -0.0000 O   0  0  0  0  0  0  0  0  0  0  0  0
    1.5320    0.0001   -0.0000 C   0  0  0  0  0  0  0  0  0  0  0  0
   -0.3843   -0.4999   -0.8863 H   0  0  0  0  0  0  0  0  0  0  0  0
   -0.3843   -0.4999    0.8863 H   0  0  0  0  0  0  0  0  0  0  0  0
   -1.4483    1.2874    0.0000 H   0  0  0  0  0  0  0  0  0  0  0  0
    1.9003   -1.0267   -0.0000 H   0  0  0  0  0  0  0  0  0  0  0  0
    1.9092    0.5095   -0.8880 H   0  0  0  0  0  0  0  0  0  0  0  0
    1.9092    0.5095    0.8880 H   0  0  0  0  0  0  0  0  0  0  0  0
  1  2  1  0  0  0  0
  3  1  1  0  0  0  0
  1  4  1  0  0  0  0
  1  5  1  0  0  0  0
  2  6  1  0  0  0  0
  3  7  1  0  0  0  0
  3  8  1  0  0  0  0
  3  9  1  0  0  0  0
M  END
