16

C 0.663810 1.285579 -0.063521
C -0.663842 1.285626 0.063381
C -1.478815 0.041932 0.108811
C -0.682486 -1.170629 -0.327161
C 0.682394 -1.170832 0.326736
C 1.478881 0.041971 -0.108277
H 1.195101 2.242294 -0.127507
H -1.195146 2.242382 0.126502
H -1.869306 -0.106837 1.136032
H -2.377259 0.162775 -0.522871
H -1.232945 -2.097997 -0.098883
H -0.551819 -1.140941 -1.425426
H 0.551574 -1.141924 1.425011
H 1.232892 -2.098066 0.097994
H 2.376642 0.162824 0.524425
H 1.870615 -0.106395 -1.135084
