14

C -1.968060 0.467298 0.000165
C -0.528762 0.212996 0.000076
C -0.050493 -1.094912 0.000105
C 1.310750 -1.324630 0.000030
C 2.195660 -0.250884 -0.000048
C 1.721923 1.053317 -0.000065
C 0.357082 1.284671 -0.000032
H -2.247221 1.557138 0.000636
O -2.818824 -0.393579 -0.000244
H -0.783163 -1.908832 0.000190
H 1.696079 -2.347982 0.000040
H 3.273697 -0.436138 -0.000101
H 2.424071 1.891293 -0.000128
H -0.041474 2.306022 -0.000064
