18

C 1.232470 -1.392838 -0.000026
C 0.000002 -0.712093 -0.000043
C 1.232471 1.392838 -0.000027
C 2.415597 0.702329 0.000036
C 2.415597 -0.702331 0.000043
H 1.225908 -2.487885 -0.000139
H 1.225912 2.487885 -0.000118
H 3.365881 1.243415 0.000166
H 3.365881 -1.243415 0.000123
C -1.232474 -1.392837 -0.000017
C -2.415596 -0.702334 0.000041
C -2.415596 0.702334 0.000045
C -1.232475 1.392837 -0.000015
C 0.000003 0.712094 -0.000046
H -1.225905 -2.487884 -0.000075
H -3.365883 -1.243414 0.000108
H -3.365884 1.243412 0.000074
H -1.225906 2.487884 -0.000094
