24

C -2.455955 1.396582 -0.000012
C -1.214712 0.717337 -0.000017
C -2.455956 -1.396582 0.000017
C -3.632756 -0.706076 0.000006
C -3.632757 0.706077 0.000006
H -2.450176 2.491521 0.000002
H -2.450175 -2.491522 0.000040
H -4.584508 -1.244513 0.000017
H -4.584509 1.244514 0.000054
C 0.000004 1.394693 0.000004
C 0.000003 -1.394693 -0.000017
C -1.214712 -0.717337 -0.000007
H -0.000015 2.491023 -0.000018
H -0.000016 -2.491024 -0.000038
C 2.455962 1.396579 0.000000
C 3.632759 0.706080 0.000005
C 3.632760 -0.706078 0.000008
C 2.455963 -1.396578 0.000004
C 1.214707 -0.717339 -0.000013
C 1.214706 0.717337 -0.000012
H 2.450146 2.491519 0.000034
H 4.584504 1.244529 0.000074
H 4.584506 -1.244526 0.000000
H 2.450149 -2.491518 0.000008
