11

C 0.000000 0.000000 0.585897
C 0.000000 1.252742 -0.256994
C 0.000000 -1.252742 -0.256994
H -0.880438 0.000000 1.252808
H 0.880438 0.000000 1.252808
H 0.000000 2.168485 0.354307
H 0.000000 -2.168485 0.354307
H 0.887359 1.287591 -0.911419
H -0.887359 1.287591 -0.911419
H -0.887359 -1.287591 -0.911419
H 0.887359 -1.287591 -0.911419
