
  Mrv0541 12081516073D          

 17 16  0  0  0  0            999 V2000
    1.5447    2.4490   -1.9494 C   0  0  1  0  0  0  0  0  0  0  0  0
    2.5778    1.2932   -2.0161 C   0  0  1  0  0  0  0  0  0  0  0  0
    0.2858    2.2039   -2.8227 C   0  0  2  0  0  0  0  0  0  0  0  0
   -0.7231    3.3724   -2.7346 C   0  0  0  0  0  0  0  0  0  0  0  0
    3.8193    1.5675   -1.1361 C   0  0  0  0  0  0  0  0  0  0  0  0
    1.2316    2.5818   -0.9097 H   0  0  0  0  0  0  0  0  0  0  0  0
    2.0281    3.3729   -2.2800 H   0  0  0  0  0  0  0  0  0  0  0  0
    2.1084    0.3648   -1.6807 H   0  0  0  0  0  0  0  0  0  0  0  0
    2.9045    1.1554   -3.0501 H   0  0  0  0  0  0  0  0  0  0  0  0
   -0.2110    1.2864   -2.4969 H   0  0  0  0  0  0  0  0  0  0  0  0
    0.5851    2.0771   -3.8663 H   0  0  0  0  0  0  0  0  0  0  0  0
   -1.5933    3.1641   -3.3607 H   0  0  0  0  0  0  0  0  0  0  0  0
   -0.2599    4.2998   -3.0789 H   0  0  0  0  0  0  0  0  0  0  0  0
   -1.0593    3.5059   -1.7038 H   0  0  0  0  0  0  0  0  0  0  0  0
    4.3238    2.4785   -1.4659 H   0  0  0  0  0  0  0  0  0  0  0  0
    3.5245    1.6846   -0.0908 H   0  0  0  0  0  0  0  0  0  0  0  0
    4.5216    0.7343   -1.2089 H   0  0  0  0  0  0  0  0  0  0  0  0
  1  2  1  0  0  0  0
  1  3  1  0  0  0  0
  4  3  1  0  0  0  0
  2  5  1  0  0  0  0
  1  6  1  0  0  0  0
  1  7  1  0  0  0  0
  2  8  1  0  0  0  0
  2  9  1  0  0  0  0
  3 10  1  0  0  0  0
  3 11  1  0  0  0  0
  4 12  1  0  0  0  0
  4 13  1  0  0  0  0
  4 14  1  0  0  0  0
  5 15  1  0  0  0  0
  5 16  1  0  0  0  0
  5 17  1  0  0  0  0
M  END
